[root]
type=Root
children=system
eventq_index=0
full_system=false
sim_quantum=0
time_sync_enable=false
time_sync_period=100000000000
time_sync_spin_threshold=100000000

[system]
type=System
children=clk_domain cpu0 cpu1 cpu2 cpu3 cpu4 cpu5 cpu6 cpu7 cpu_clk_domain cpu_voltage_domain dvfs_handler mem_ctrls0 mem_ctrls1 mem_ctrls2 mem_ctrls3 mem_ctrls4 mem_ctrls5 mem_ctrls6 mem_ctrls7 redirect_paths0 redirect_paths1 redirect_paths2 ruby sys_port_proxy voltage_domain
cache_line_size=64
eventq_index=0
exit_on_work_items=false
init_param=0
m5ops_base=0
mem_mode=timing
mem_ranges=0:536870912
memories=system.mem_ctrls0 system.mem_ctrls1 system.mem_ctrls2 system.mem_ctrls3 system.mem_ctrls4 system.mem_ctrls5 system.mem_ctrls6 system.mem_ctrls7
mmap_using_noreserve=false
multi_thread=false
num_work_ids=16
readfile=
redirect_paths=system.redirect_paths0 system.redirect_paths1 system.redirect_paths2
symbolfile=
thermal_components=
thermal_model=Null
work_begin_ckpt_count=0
work_begin_cpu_id_exit=-1
work_begin_exit_count=0
work_cpus_ckpt_count=0
work_end_ckpt_count=0
work_end_exit_count=0
work_item_id=-1
workload=Null
system_port=system.sys_port_proxy.slave[0]

[system.clk_domain]
type=SrcClockDomain
clock=1000
domain_id=-1
eventq_index=0
init_perf_level=0
voltage_domain=system.voltage_domain

[system.cpu0]
type=MinorCPU
children=branchPred dtb dummy1 dummy2 dummy3 executeFuncUnits interrupts isa itb power_state requestFromSpu responseToSpu tracer workload
branchPred=system.cpu0.branchPred
checker=Null
clk_domain=system.cpu_clk_domain
cpu_id=0
decodeCycleInput=true
decodeInputBufferSize=3
decodeInputWidth=1
decodeToExecuteForwardDelay=1
do_checkpoint_insts=true
do_quiesce=true
do_statistics_insts=true
dtb=system.cpu0.dtb
dummy1=system.cpu0.dummy1
dummy2=system.cpu0.dummy2
dummy3=system.cpu0.dummy3
enableIdling=true
eventq_index=0
executeAllowEarlyMemoryIssue=true
executeBranchDelay=1
executeCommitLimit=2
executeCycleInput=true
executeFuncUnits=system.cpu0.executeFuncUnits
executeInputBufferSize=7
executeInputWidth=1
executeIssueLimit=1
executeLSQMaxStoreBufferStoresPerCycle=2
executeLSQRequestsQueueSize=1
executeLSQStoreBufferSize=5
executeLSQTransfersQueueSize=2
executeMaxAccessesInMemory=20
executeMemoryCommitLimit=1
executeMemoryIssueLimit=1
executeMemoryWidth=0
executeSetTraceTimeOnCommit=true
executeSetTraceTimeOnIssue=false
fetch1FetchLimit=1
fetch1LineSnapWidth=0
fetch1LineWidth=0
fetch1ToFetch2BackwardDelay=1
fetch1ToFetch2ForwardDelay=1
fetch2CycleInput=true
fetch2InputBufferSize=2
fetch2ToDecodeForwardDelay=1
function_trace=false
function_trace_start=0
interrupts=system.cpu0.interrupts
isa=system.cpu0.isa
itb=system.cpu0.itb
max_insts_all_threads=0
max_insts_any_thread=0
numThreads=1
power_gating_on_idle=false
power_model=
power_state=system.cpu0.power_state
profile=0
progress_interval=0
pwr_gating_latency=300
requestFromSpu=system.cpu0.requestFromSpu
responseToSpu=system.cpu0.responseToSpu
simpoint_start_insts=
socket_id=0
switched_out=false
syscallRetryLatency=10000
system=system
threadPolicy=RoundRobin
tracer=system.cpu0.tracer
wait_for_remote_gdb=false
workload=system.cpu0.workload
dcache_port=system.ruby.l1_cntrl0.sequencer.slave[1]
icache_port=system.ruby.l1_cntrl0.sequencer.slave[0]

[system.cpu0.branchPred]
type=TournamentBP
children=indirectBranchPred
BTBEntries=4096
BTBTagSize=16
RASSize=16
choiceCtrBits=2
choicePredictorSize=8192
eventq_index=0
globalCtrBits=2
globalPredictorSize=8192
indirectBranchPred=system.cpu0.branchPred.indirectBranchPred
instShiftAmt=2
localCtrBits=2
localHistoryTableSize=2048
localPredictorSize=2048
numThreads=1

[system.cpu0.branchPred.indirectBranchPred]
type=SimpleIndirectPredictor
eventq_index=0
indirectGHRBits=13
indirectHashGHR=true
indirectHashTargets=true
indirectPathLength=3
indirectSets=256
indirectTagSize=16
indirectWays=2
instShiftAmt=2
numThreads=1

[system.cpu0.dtb]
type=RiscvTLB
children=walker
eventq_index=0
size=64
walker=system.cpu0.dtb.walker

[system.cpu0.dtb.walker]
type=RiscvPagetableWalker
children=power_state
clk_domain=system.cpu_clk_domain
eventq_index=0
num_squash_per_cycle=4
power_model=
power_state=system.cpu0.dtb.walker.power_state
system=system

[system.cpu0.dtb.walker.power_state]
type=PowerState
clk_gate_bins=20
clk_gate_max=1000000000000
clk_gate_min=1000
default_state=UNDEFINED
eventq_index=0
leaders=
possible_states=

[system.cpu0.dummy1]
type=MessageBuffer
buffer_size=0
eventq_index=0
ordered=false
randomization=false

[system.cpu0.dummy2]
type=MessageBuffer
buffer_size=0
eventq_index=0
ordered=false
randomization=false

[system.cpu0.dummy3]
type=MessageBuffer
buffer_size=0
eventq_index=0
ordered=false
randomization=false

[system.cpu0.executeFuncUnits]
type=MinorFUPool
children=funcUnits0 funcUnits1 funcUnits2 funcUnits3 funcUnits4 funcUnits5 funcUnits6 funcUnits7
eventq_index=0
funcUnits=system.cpu0.executeFuncUnits.funcUnits0 system.cpu0.executeFuncUnits.funcUnits1 system.cpu0.executeFuncUnits.funcUnits2 system.cpu0.executeFuncUnits.funcUnits3 system.cpu0.executeFuncUnits.funcUnits4 system.cpu0.executeFuncUnits.funcUnits5 system.cpu0.executeFuncUnits.funcUnits6 system.cpu0.executeFuncUnits.funcUnits7

[system.cpu0.executeFuncUnits.funcUnits0]
type=MinorFU
children=opClasses timings
cantForwardFromFUIndices=
eventq_index=0
issueLat=1
opClasses=system.cpu0.executeFuncUnits.funcUnits0.opClasses
opLat=3
timings=system.cpu0.executeFuncUnits.funcUnits0.timings

[system.cpu0.executeFuncUnits.funcUnits0.opClasses]
type=MinorOpClassSet
children=opClasses
eventq_index=0
opClasses=system.cpu0.executeFuncUnits.funcUnits0.opClasses.opClasses

[system.cpu0.executeFuncUnits.funcUnits0.opClasses.opClasses]
type=MinorOpClass
eventq_index=0
opClass=IntAlu

[system.cpu0.executeFuncUnits.funcUnits0.timings]
type=MinorFUTiming
children=opClasses
description=Int
eventq_index=0
extraAssumedLat=0
extraCommitLat=0
extraCommitLatExpr=Null
mask=0
match=0
opClasses=system.cpu0.executeFuncUnits.funcUnits0.timings.opClasses
srcRegsRelativeLats=2
suppress=false

[system.cpu0.executeFuncUnits.funcUnits0.timings.opClasses]
type=MinorOpClassSet
eventq_index=0
opClasses=

[system.cpu0.executeFuncUnits.funcUnits1]
type=MinorFU
children=opClasses timings
cantForwardFromFUIndices=
eventq_index=0
issueLat=1
opClasses=system.cpu0.executeFuncUnits.funcUnits1.opClasses
opLat=3
timings=system.cpu0.executeFuncUnits.funcUnits1.timings

[system.cpu0.executeFuncUnits.funcUnits1.opClasses]
type=MinorOpClassSet
children=opClasses
eventq_index=0
opClasses=system.cpu0.executeFuncUnits.funcUnits1.opClasses.opClasses

[system.cpu0.executeFuncUnits.funcUnits1.opClasses.opClasses]
type=MinorOpClass
eventq_index=0
opClass=IntAlu

[system.cpu0.executeFuncUnits.funcUnits1.timings]
type=MinorFUTiming
children=opClasses
description=Int
eventq_index=0
extraAssumedLat=0
extraCommitLat=0
extraCommitLatExpr=Null
mask=0
match=0
opClasses=system.cpu0.executeFuncUnits.funcUnits1.timings.opClasses
srcRegsRelativeLats=2
suppress=false

[system.cpu0.executeFuncUnits.funcUnits1.timings.opClasses]
type=MinorOpClassSet
eventq_index=0
opClasses=

[system.cpu0.executeFuncUnits.funcUnits2]
type=MinorFU
children=opClasses timings
cantForwardFromFUIndices=
eventq_index=0
issueLat=1
opClasses=system.cpu0.executeFuncUnits.funcUnits2.opClasses
opLat=3
timings=system.cpu0.executeFuncUnits.funcUnits2.timings

[system.cpu0.executeFuncUnits.funcUnits2.opClasses]
type=MinorOpClassSet
children=opClasses
eventq_index=0
opClasses=system.cpu0.executeFuncUnits.funcUnits2.opClasses.opClasses

[system.cpu0.executeFuncUnits.funcUnits2.opClasses.opClasses]
type=MinorOpClass
eventq_index=0
opClass=IntMult

[system.cpu0.executeFuncUnits.funcUnits2.timings]
type=MinorFUTiming
children=opClasses
description=Mul
eventq_index=0
extraAssumedLat=0
extraCommitLat=0
extraCommitLatExpr=Null
mask=0
match=0
opClasses=system.cpu0.executeFuncUnits.funcUnits2.timings.opClasses
srcRegsRelativeLats=0
suppress=false

[system.cpu0.executeFuncUnits.funcUnits2.timings.opClasses]
type=MinorOpClassSet
eventq_index=0
opClasses=

[system.cpu0.executeFuncUnits.funcUnits3]
type=MinorFU
children=opClasses
cantForwardFromFUIndices=
eventq_index=0
issueLat=9
opClasses=system.cpu0.executeFuncUnits.funcUnits3.opClasses
opLat=9
timings=

[system.cpu0.executeFuncUnits.funcUnits3.opClasses]
type=MinorOpClassSet
children=opClasses
eventq_index=0
opClasses=system.cpu0.executeFuncUnits.funcUnits3.opClasses.opClasses

[system.cpu0.executeFuncUnits.funcUnits3.opClasses.opClasses]
type=MinorOpClass
eventq_index=0
opClass=IntDiv

[system.cpu0.executeFuncUnits.funcUnits4]
type=MinorFU
children=opClasses timings
cantForwardFromFUIndices=
eventq_index=0
issueLat=1
opClasses=system.cpu0.executeFuncUnits.funcUnits4.opClasses
opLat=6
timings=system.cpu0.executeFuncUnits.funcUnits4.timings

[system.cpu0.executeFuncUnits.funcUnits4.opClasses]
type=MinorOpClassSet
children=opClasses00 opClasses01 opClasses02 opClasses03 opClasses04 opClasses05 opClasses06 opClasses07 opClasses08 opClasses09 opClasses10 opClasses11 opClasses12 opClasses13 opClasses14 opClasses15 opClasses16 opClasses17 opClasses18 opClasses19 opClasses20 opClasses21 opClasses22 opClasses23 opClasses24 opClasses25 opClasses26 opClasses27 opClasses28 opClasses29 opClasses30 opClasses31 opClasses32 opClasses33 opClasses34 opClasses35 opClasses36 opClasses37 opClasses38 opClasses39 opClasses40 opClasses41
eventq_index=0
opClasses=system.cpu0.executeFuncUnits.funcUnits4.opClasses.opClasses00 system.cpu0.executeFuncUnits.funcUnits4.opClasses.opClasses01 system.cpu0.executeFuncUnits.funcUnits4.opClasses.opClasses02 system.cpu0.executeFuncUnits.funcUnits4.opClasses.opClasses03 system.cpu0.executeFuncUnits.funcUnits4.opClasses.opClasses04 system.cpu0.executeFuncUnits.funcUnits4.opClasses.opClasses05 system.cpu0.executeFuncUnits.funcUnits4.opClasses.opClasses06 system.cpu0.executeFuncUnits.funcUnits4.opClasses.opClasses07 system.cpu0.executeFuncUnits.funcUnits4.opClasses.opClasses08 system.cpu0.executeFuncUnits.funcUnits4.opClasses.opClasses09 system.cpu0.executeFuncUnits.funcUnits4.opClasses.opClasses10 system.cpu0.executeFuncUnits.funcUnits4.opClasses.opClasses11 system.cpu0.executeFuncUnits.funcUnits4.opClasses.opClasses12 system.cpu0.executeFuncUnits.funcUnits4.opClasses.opClasses13 system.cpu0.executeFuncUnits.funcUnits4.opClasses.opClasses14 system.cpu0.executeFuncUnits.funcUnits4.opClasses.opClasses15 system.cpu0.executeFuncUnits.funcUnits4.opClasses.opClasses16 system.cpu0.executeFuncUnits.funcUnits4.opClasses.opClasses17 system.cpu0.executeFuncUnits.funcUnits4.opClasses.opClasses18 system.cpu0.executeFuncUnits.funcUnits4.opClasses.opClasses19 system.cpu0.executeFuncUnits.funcUnits4.opClasses.opClasses20 system.cpu0.executeFuncUnits.funcUnits4.opClasses.opClasses21 system.cpu0.executeFuncUnits.funcUnits4.opClasses.opClasses22 system.cpu0.executeFuncUnits.funcUnits4.opClasses.opClasses23 system.cpu0.executeFuncUnits.funcUnits4.opClasses.opClasses24 system.cpu0.executeFuncUnits.funcUnits4.opClasses.opClasses25 system.cpu0.executeFuncUnits.funcUnits4.opClasses.opClasses26 system.cpu0.executeFuncUnits.funcUnits4.opClasses.opClasses27 system.cpu0.executeFuncUnits.funcUnits4.opClasses.opClasses28 system.cpu0.executeFuncUnits.funcUnits4.opClasses.opClasses29 system.cpu0.executeFuncUnits.funcUnits4.opClasses.opClasses30 system.cpu0.executeFuncUnits.funcUnits4.opClasses.opClasses31 system.cpu0.executeFuncUnits.funcUnits4.opClasses.opClasses32 system.cpu0.executeFuncUnits.funcUnits4.opClasses.opClasses33 system.cpu0.executeFuncUnits.funcUnits4.opClasses.opClasses34 system.cpu0.executeFuncUnits.funcUnits4.opClasses.opClasses35 system.cpu0.executeFuncUnits.funcUnits4.opClasses.opClasses36 system.cpu0.executeFuncUnits.funcUnits4.opClasses.opClasses37 system.cpu0.executeFuncUnits.funcUnits4.opClasses.opClasses38 system.cpu0.executeFuncUnits.funcUnits4.opClasses.opClasses39 system.cpu0.executeFuncUnits.funcUnits4.opClasses.opClasses40 system.cpu0.executeFuncUnits.funcUnits4.opClasses.opClasses41

[system.cpu0.executeFuncUnits.funcUnits4.opClasses.opClasses00]
type=MinorOpClass
eventq_index=0
opClass=FloatAdd

[system.cpu0.executeFuncUnits.funcUnits4.opClasses.opClasses01]
type=MinorOpClass
eventq_index=0
opClass=FloatCmp

[system.cpu0.executeFuncUnits.funcUnits4.opClasses.opClasses02]
type=MinorOpClass
eventq_index=0
opClass=FloatCvt

[system.cpu0.executeFuncUnits.funcUnits4.opClasses.opClasses03]
type=MinorOpClass
eventq_index=0
opClass=FloatMisc

[system.cpu0.executeFuncUnits.funcUnits4.opClasses.opClasses04]
type=MinorOpClass
eventq_index=0
opClass=FloatMult

[system.cpu0.executeFuncUnits.funcUnits4.opClasses.opClasses05]
type=MinorOpClass
eventq_index=0
opClass=FloatMultAcc

[system.cpu0.executeFuncUnits.funcUnits4.opClasses.opClasses06]
type=MinorOpClass
eventq_index=0
opClass=FloatDiv

[system.cpu0.executeFuncUnits.funcUnits4.opClasses.opClasses07]
type=MinorOpClass
eventq_index=0
opClass=FloatSqrt

[system.cpu0.executeFuncUnits.funcUnits4.opClasses.opClasses08]
type=MinorOpClass
eventq_index=0
opClass=SimdAdd

[system.cpu0.executeFuncUnits.funcUnits4.opClasses.opClasses09]
type=MinorOpClass
eventq_index=0
opClass=SimdAddAcc

[system.cpu0.executeFuncUnits.funcUnits4.opClasses.opClasses10]
type=MinorOpClass
eventq_index=0
opClass=SimdAlu

[system.cpu0.executeFuncUnits.funcUnits4.opClasses.opClasses11]
type=MinorOpClass
eventq_index=0
opClass=SimdCmp

[system.cpu0.executeFuncUnits.funcUnits4.opClasses.opClasses12]
type=MinorOpClass
eventq_index=0
opClass=SimdCvt

[system.cpu0.executeFuncUnits.funcUnits4.opClasses.opClasses13]
type=MinorOpClass
eventq_index=0
opClass=SimdMisc

[system.cpu0.executeFuncUnits.funcUnits4.opClasses.opClasses14]
type=MinorOpClass
eventq_index=0
opClass=SimdMult

[system.cpu0.executeFuncUnits.funcUnits4.opClasses.opClasses15]
type=MinorOpClass
eventq_index=0
opClass=SimdMultAcc

[system.cpu0.executeFuncUnits.funcUnits4.opClasses.opClasses16]
type=MinorOpClass
eventq_index=0
opClass=SimdShift

[system.cpu0.executeFuncUnits.funcUnits4.opClasses.opClasses17]
type=MinorOpClass
eventq_index=0
opClass=SimdShiftAcc

[system.cpu0.executeFuncUnits.funcUnits4.opClasses.opClasses18]
type=MinorOpClass
eventq_index=0
opClass=SimdDiv

[system.cpu0.executeFuncUnits.funcUnits4.opClasses.opClasses19]
type=MinorOpClass
eventq_index=0
opClass=SimdSqrt

[system.cpu0.executeFuncUnits.funcUnits4.opClasses.opClasses20]
type=MinorOpClass
eventq_index=0
opClass=SimdFloatAdd

[system.cpu0.executeFuncUnits.funcUnits4.opClasses.opClasses21]
type=MinorOpClass
eventq_index=0
opClass=SimdFloatAlu

[system.cpu0.executeFuncUnits.funcUnits4.opClasses.opClasses22]
type=MinorOpClass
eventq_index=0
opClass=SimdFloatCmp

[system.cpu0.executeFuncUnits.funcUnits4.opClasses.opClasses23]
type=MinorOpClass
eventq_index=0
opClass=SimdFloatCvt

[system.cpu0.executeFuncUnits.funcUnits4.opClasses.opClasses24]
type=MinorOpClass
eventq_index=0
opClass=SimdFloatDiv

[system.cpu0.executeFuncUnits.funcUnits4.opClasses.opClasses25]
type=MinorOpClass
eventq_index=0
opClass=SimdFloatMisc

[system.cpu0.executeFuncUnits.funcUnits4.opClasses.opClasses26]
type=MinorOpClass
eventq_index=0
opClass=SimdFloatMult

[system.cpu0.executeFuncUnits.funcUnits4.opClasses.opClasses27]
type=MinorOpClass
eventq_index=0
opClass=SimdFloatMultAcc

[system.cpu0.executeFuncUnits.funcUnits4.opClasses.opClasses28]
type=MinorOpClass
eventq_index=0
opClass=SimdFloatSqrt

[system.cpu0.executeFuncUnits.funcUnits4.opClasses.opClasses29]
type=MinorOpClass
eventq_index=0
opClass=SimdReduceAdd

[system.cpu0.executeFuncUnits.funcUnits4.opClasses.opClasses30]
type=MinorOpClass
eventq_index=0
opClass=SimdReduceAlu

[system.cpu0.executeFuncUnits.funcUnits4.opClasses.opClasses31]
type=MinorOpClass
eventq_index=0
opClass=SimdReduceCmp

[system.cpu0.executeFuncUnits.funcUnits4.opClasses.opClasses32]
type=MinorOpClass
eventq_index=0
opClass=SimdFloatReduceAdd

[system.cpu0.executeFuncUnits.funcUnits4.opClasses.opClasses33]
type=MinorOpClass
eventq_index=0
opClass=SimdFloatReduceCmp

[system.cpu0.executeFuncUnits.funcUnits4.opClasses.opClasses34]
type=MinorOpClass
eventq_index=0
opClass=SimdAes

[system.cpu0.executeFuncUnits.funcUnits4.opClasses.opClasses35]
type=MinorOpClass
eventq_index=0
opClass=SimdAesMix

[system.cpu0.executeFuncUnits.funcUnits4.opClasses.opClasses36]
type=MinorOpClass
eventq_index=0
opClass=SimdSha1Hash

[system.cpu0.executeFuncUnits.funcUnits4.opClasses.opClasses37]
type=MinorOpClass
eventq_index=0
opClass=SimdSha1Hash2

[system.cpu0.executeFuncUnits.funcUnits4.opClasses.opClasses38]
type=MinorOpClass
eventq_index=0
opClass=SimdSha256Hash

[system.cpu0.executeFuncUnits.funcUnits4.opClasses.opClasses39]
type=MinorOpClass
eventq_index=0
opClass=SimdSha256Hash2

[system.cpu0.executeFuncUnits.funcUnits4.opClasses.opClasses40]
type=MinorOpClass
eventq_index=0
opClass=SimdShaSigma2

[system.cpu0.executeFuncUnits.funcUnits4.opClasses.opClasses41]
type=MinorOpClass
eventq_index=0
opClass=SimdShaSigma3

[system.cpu0.executeFuncUnits.funcUnits4.timings]
type=MinorFUTiming
children=opClasses
description=FloatSimd
eventq_index=0
extraAssumedLat=0
extraCommitLat=0
extraCommitLatExpr=Null
mask=0
match=0
opClasses=system.cpu0.executeFuncUnits.funcUnits4.timings.opClasses
srcRegsRelativeLats=2
suppress=false

[system.cpu0.executeFuncUnits.funcUnits4.timings.opClasses]
type=MinorOpClassSet
eventq_index=0
opClasses=

[system.cpu0.executeFuncUnits.funcUnits5]
type=MinorFU
children=opClasses timings
cantForwardFromFUIndices=
eventq_index=0
issueLat=1
opClasses=system.cpu0.executeFuncUnits.funcUnits5.opClasses
opLat=3
timings=system.cpu0.executeFuncUnits.funcUnits5.timings

[system.cpu0.executeFuncUnits.funcUnits5.opClasses]
type=MinorOpClassSet
children=opClasses
eventq_index=0
opClasses=system.cpu0.executeFuncUnits.funcUnits5.opClasses.opClasses

[system.cpu0.executeFuncUnits.funcUnits5.opClasses.opClasses]
type=MinorOpClass
eventq_index=0
opClass=SimdPredAlu

[system.cpu0.executeFuncUnits.funcUnits5.timings]
type=MinorFUTiming
children=opClasses
description=Pred
eventq_index=0
extraAssumedLat=0
extraCommitLat=0
extraCommitLatExpr=Null
mask=0
match=0
opClasses=system.cpu0.executeFuncUnits.funcUnits5.timings.opClasses
srcRegsRelativeLats=2
suppress=false

[system.cpu0.executeFuncUnits.funcUnits5.timings.opClasses]
type=MinorOpClassSet
eventq_index=0
opClasses=

[system.cpu0.executeFuncUnits.funcUnits6]
type=MinorFU
children=opClasses timings
cantForwardFromFUIndices=
eventq_index=0
issueLat=1
opClasses=system.cpu0.executeFuncUnits.funcUnits6.opClasses
opLat=1
timings=system.cpu0.executeFuncUnits.funcUnits6.timings

[system.cpu0.executeFuncUnits.funcUnits6.opClasses]
type=MinorOpClassSet
children=opClasses0 opClasses1 opClasses2 opClasses3
eventq_index=0
opClasses=system.cpu0.executeFuncUnits.funcUnits6.opClasses.opClasses0 system.cpu0.executeFuncUnits.funcUnits6.opClasses.opClasses1 system.cpu0.executeFuncUnits.funcUnits6.opClasses.opClasses2 system.cpu0.executeFuncUnits.funcUnits6.opClasses.opClasses3

[system.cpu0.executeFuncUnits.funcUnits6.opClasses.opClasses0]
type=MinorOpClass
eventq_index=0
opClass=MemRead

[system.cpu0.executeFuncUnits.funcUnits6.opClasses.opClasses1]
type=MinorOpClass
eventq_index=0
opClass=MemWrite

[system.cpu0.executeFuncUnits.funcUnits6.opClasses.opClasses2]
type=MinorOpClass
eventq_index=0
opClass=FloatMemRead

[system.cpu0.executeFuncUnits.funcUnits6.opClasses.opClasses3]
type=MinorOpClass
eventq_index=0
opClass=FloatMemWrite

[system.cpu0.executeFuncUnits.funcUnits6.timings]
type=MinorFUTiming
children=opClasses
description=Mem
eventq_index=0
extraAssumedLat=2
extraCommitLat=0
extraCommitLatExpr=Null
mask=0
match=0
opClasses=system.cpu0.executeFuncUnits.funcUnits6.timings.opClasses
srcRegsRelativeLats=1
suppress=false

[system.cpu0.executeFuncUnits.funcUnits6.timings.opClasses]
type=MinorOpClassSet
eventq_index=0
opClasses=

[system.cpu0.executeFuncUnits.funcUnits7]
type=MinorFU
children=opClasses
cantForwardFromFUIndices=
eventq_index=0
issueLat=1
opClasses=system.cpu0.executeFuncUnits.funcUnits7.opClasses
opLat=1
timings=

[system.cpu0.executeFuncUnits.funcUnits7.opClasses]
type=MinorOpClassSet
children=opClasses0 opClasses1
eventq_index=0
opClasses=system.cpu0.executeFuncUnits.funcUnits7.opClasses.opClasses0 system.cpu0.executeFuncUnits.funcUnits7.opClasses.opClasses1

[system.cpu0.executeFuncUnits.funcUnits7.opClasses.opClasses0]
type=MinorOpClass
eventq_index=0
opClass=IprAccess

[system.cpu0.executeFuncUnits.funcUnits7.opClasses.opClasses1]
type=MinorOpClass
eventq_index=0
opClass=InstPrefetch

[system.cpu0.interrupts]
type=RiscvInterrupts
eventq_index=0

[system.cpu0.isa]
type=RiscvISA
eventq_index=0

[system.cpu0.itb]
type=RiscvTLB
children=walker
eventq_index=0
size=64
walker=system.cpu0.itb.walker

[system.cpu0.itb.walker]
type=RiscvPagetableWalker
children=power_state
clk_domain=system.cpu_clk_domain
eventq_index=0
num_squash_per_cycle=4
power_model=
power_state=system.cpu0.itb.walker.power_state
system=system

[system.cpu0.itb.walker.power_state]
type=PowerState
clk_gate_bins=20
clk_gate_max=1000000000000
clk_gate_min=1000
default_state=UNDEFINED
eventq_index=0
leaders=
possible_states=

[system.cpu0.power_state]
type=PowerState
clk_gate_bins=20
clk_gate_max=1000000000000
clk_gate_min=1000
default_state=UNDEFINED
eventq_index=0
leaders=
possible_states=ON CLK_GATED OFF

[system.cpu0.requestFromSpu]
type=MessageBuffer
buffer_size=0
eventq_index=0
ordered=false
randomization=false

[system.cpu0.responseToSpu]
type=MessageBuffer
buffer_size=0
eventq_index=0
ordered=false
randomization=false

[system.cpu0.tracer]
type=ExeTracer
eventq_index=0

[system.cpu0.workload]
type=Process
cmd=./O3-dsa-main.out
cwd=/home/weng/workspace/tutorial-examples/apps/02_vector_norm/compile
drivers=
egid=100
env=
errout=cerr
euid=100
eventq_index=0
executable=./O3-dsa-main.out
gid=100
input=cin
kvmInSE=false
maxStackSize=67108864
output=cout
pgid=100
pid=100
ppid=0
release=5.1.0
simpoint=0
system=system
uid=100
useArchPT=false

[system.cpu1]
type=MinorCPU
children=branchPred dtb dummy1 dummy2 dummy3 executeFuncUnits interrupts isa itb power_state requestFromSpu responseToSpu tracer
branchPred=system.cpu1.branchPred
checker=Null
clk_domain=system.cpu_clk_domain
cpu_id=1
decodeCycleInput=true
decodeInputBufferSize=3
decodeInputWidth=1
decodeToExecuteForwardDelay=1
do_checkpoint_insts=true
do_quiesce=true
do_statistics_insts=true
dtb=system.cpu1.dtb
dummy1=system.cpu1.dummy1
dummy2=system.cpu1.dummy2
dummy3=system.cpu1.dummy3
enableIdling=true
eventq_index=0
executeAllowEarlyMemoryIssue=true
executeBranchDelay=1
executeCommitLimit=2
executeCycleInput=true
executeFuncUnits=system.cpu1.executeFuncUnits
executeInputBufferSize=7
executeInputWidth=1
executeIssueLimit=1
executeLSQMaxStoreBufferStoresPerCycle=2
executeLSQRequestsQueueSize=1
executeLSQStoreBufferSize=5
executeLSQTransfersQueueSize=2
executeMaxAccessesInMemory=20
executeMemoryCommitLimit=1
executeMemoryIssueLimit=1
executeMemoryWidth=0
executeSetTraceTimeOnCommit=true
executeSetTraceTimeOnIssue=false
fetch1FetchLimit=1
fetch1LineSnapWidth=0
fetch1LineWidth=0
fetch1ToFetch2BackwardDelay=1
fetch1ToFetch2ForwardDelay=1
fetch2CycleInput=true
fetch2InputBufferSize=2
fetch2ToDecodeForwardDelay=1
function_trace=false
function_trace_start=0
interrupts=system.cpu1.interrupts
isa=system.cpu1.isa
itb=system.cpu1.itb
max_insts_all_threads=0
max_insts_any_thread=0
numThreads=1
power_gating_on_idle=false
power_model=
power_state=system.cpu1.power_state
profile=0
progress_interval=0
pwr_gating_latency=300
requestFromSpu=system.cpu1.requestFromSpu
responseToSpu=system.cpu1.responseToSpu
simpoint_start_insts=
socket_id=0
switched_out=false
syscallRetryLatency=10000
system=system
threadPolicy=RoundRobin
tracer=system.cpu1.tracer
wait_for_remote_gdb=false
workload=system.cpu0.workload
dcache_port=system.ruby.l1_cntrl1.sequencer.slave[1]
icache_port=system.ruby.l1_cntrl1.sequencer.slave[0]

[system.cpu1.branchPred]
type=TournamentBP
children=indirectBranchPred
BTBEntries=4096
BTBTagSize=16
RASSize=16
choiceCtrBits=2
choicePredictorSize=8192
eventq_index=0
globalCtrBits=2
globalPredictorSize=8192
indirectBranchPred=system.cpu1.branchPred.indirectBranchPred
instShiftAmt=2
localCtrBits=2
localHistoryTableSize=2048
localPredictorSize=2048
numThreads=1

[system.cpu1.branchPred.indirectBranchPred]
type=SimpleIndirectPredictor
eventq_index=0
indirectGHRBits=13
indirectHashGHR=true
indirectHashTargets=true
indirectPathLength=3
indirectSets=256
indirectTagSize=16
indirectWays=2
instShiftAmt=2
numThreads=1

[system.cpu1.dtb]
type=RiscvTLB
children=walker
eventq_index=0
size=64
walker=system.cpu1.dtb.walker

[system.cpu1.dtb.walker]
type=RiscvPagetableWalker
children=power_state
clk_domain=system.cpu_clk_domain
eventq_index=0
num_squash_per_cycle=4
power_model=
power_state=system.cpu1.dtb.walker.power_state
system=system

[system.cpu1.dtb.walker.power_state]
type=PowerState
clk_gate_bins=20
clk_gate_max=1000000000000
clk_gate_min=1000
default_state=UNDEFINED
eventq_index=0
leaders=
possible_states=

[system.cpu1.dummy1]
type=MessageBuffer
buffer_size=0
eventq_index=0
ordered=false
randomization=false

[system.cpu1.dummy2]
type=MessageBuffer
buffer_size=0
eventq_index=0
ordered=false
randomization=false

[system.cpu1.dummy3]
type=MessageBuffer
buffer_size=0
eventq_index=0
ordered=false
randomization=false

[system.cpu1.executeFuncUnits]
type=MinorFUPool
children=funcUnits0 funcUnits1 funcUnits2 funcUnits3 funcUnits4 funcUnits5 funcUnits6 funcUnits7
eventq_index=0
funcUnits=system.cpu1.executeFuncUnits.funcUnits0 system.cpu1.executeFuncUnits.funcUnits1 system.cpu1.executeFuncUnits.funcUnits2 system.cpu1.executeFuncUnits.funcUnits3 system.cpu1.executeFuncUnits.funcUnits4 system.cpu1.executeFuncUnits.funcUnits5 system.cpu1.executeFuncUnits.funcUnits6 system.cpu1.executeFuncUnits.funcUnits7

[system.cpu1.executeFuncUnits.funcUnits0]
type=MinorFU
children=opClasses timings
cantForwardFromFUIndices=
eventq_index=0
issueLat=1
opClasses=system.cpu1.executeFuncUnits.funcUnits0.opClasses
opLat=3
timings=system.cpu1.executeFuncUnits.funcUnits0.timings

[system.cpu1.executeFuncUnits.funcUnits0.opClasses]
type=MinorOpClassSet
children=opClasses
eventq_index=0
opClasses=system.cpu1.executeFuncUnits.funcUnits0.opClasses.opClasses

[system.cpu1.executeFuncUnits.funcUnits0.opClasses.opClasses]
type=MinorOpClass
eventq_index=0
opClass=IntAlu

[system.cpu1.executeFuncUnits.funcUnits0.timings]
type=MinorFUTiming
children=opClasses
description=Int
eventq_index=0
extraAssumedLat=0
extraCommitLat=0
extraCommitLatExpr=Null
mask=0
match=0
opClasses=system.cpu1.executeFuncUnits.funcUnits0.timings.opClasses
srcRegsRelativeLats=2
suppress=false

[system.cpu1.executeFuncUnits.funcUnits0.timings.opClasses]
type=MinorOpClassSet
eventq_index=0
opClasses=

[system.cpu1.executeFuncUnits.funcUnits1]
type=MinorFU
children=opClasses timings
cantForwardFromFUIndices=
eventq_index=0
issueLat=1
opClasses=system.cpu1.executeFuncUnits.funcUnits1.opClasses
opLat=3
timings=system.cpu1.executeFuncUnits.funcUnits1.timings

[system.cpu1.executeFuncUnits.funcUnits1.opClasses]
type=MinorOpClassSet
children=opClasses
eventq_index=0
opClasses=system.cpu1.executeFuncUnits.funcUnits1.opClasses.opClasses

[system.cpu1.executeFuncUnits.funcUnits1.opClasses.opClasses]
type=MinorOpClass
eventq_index=0
opClass=IntAlu

[system.cpu1.executeFuncUnits.funcUnits1.timings]
type=MinorFUTiming
children=opClasses
description=Int
eventq_index=0
extraAssumedLat=0
extraCommitLat=0
extraCommitLatExpr=Null
mask=0
match=0
opClasses=system.cpu1.executeFuncUnits.funcUnits1.timings.opClasses
srcRegsRelativeLats=2
suppress=false

[system.cpu1.executeFuncUnits.funcUnits1.timings.opClasses]
type=MinorOpClassSet
eventq_index=0
opClasses=

[system.cpu1.executeFuncUnits.funcUnits2]
type=MinorFU
children=opClasses timings
cantForwardFromFUIndices=
eventq_index=0
issueLat=1
opClasses=system.cpu1.executeFuncUnits.funcUnits2.opClasses
opLat=3
timings=system.cpu1.executeFuncUnits.funcUnits2.timings

[system.cpu1.executeFuncUnits.funcUnits2.opClasses]
type=MinorOpClassSet
children=opClasses
eventq_index=0
opClasses=system.cpu1.executeFuncUnits.funcUnits2.opClasses.opClasses

[system.cpu1.executeFuncUnits.funcUnits2.opClasses.opClasses]
type=MinorOpClass
eventq_index=0
opClass=IntMult

[system.cpu1.executeFuncUnits.funcUnits2.timings]
type=MinorFUTiming
children=opClasses
description=Mul
eventq_index=0
extraAssumedLat=0
extraCommitLat=0
extraCommitLatExpr=Null
mask=0
match=0
opClasses=system.cpu1.executeFuncUnits.funcUnits2.timings.opClasses
srcRegsRelativeLats=0
suppress=false

[system.cpu1.executeFuncUnits.funcUnits2.timings.opClasses]
type=MinorOpClassSet
eventq_index=0
opClasses=

[system.cpu1.executeFuncUnits.funcUnits3]
type=MinorFU
children=opClasses
cantForwardFromFUIndices=
eventq_index=0
issueLat=9
opClasses=system.cpu1.executeFuncUnits.funcUnits3.opClasses
opLat=9
timings=

[system.cpu1.executeFuncUnits.funcUnits3.opClasses]
type=MinorOpClassSet
children=opClasses
eventq_index=0
opClasses=system.cpu1.executeFuncUnits.funcUnits3.opClasses.opClasses

[system.cpu1.executeFuncUnits.funcUnits3.opClasses.opClasses]
type=MinorOpClass
eventq_index=0
opClass=IntDiv

[system.cpu1.executeFuncUnits.funcUnits4]
type=MinorFU
children=opClasses timings
cantForwardFromFUIndices=
eventq_index=0
issueLat=1
opClasses=system.cpu1.executeFuncUnits.funcUnits4.opClasses
opLat=6
timings=system.cpu1.executeFuncUnits.funcUnits4.timings

[system.cpu1.executeFuncUnits.funcUnits4.opClasses]
type=MinorOpClassSet